Version 4
SHEET 1 896 680
WIRE 368 -48 320 -48
WIRE 528 -48 448 -48
WIRE 624 -48 528 -48
WIRE 672 -48 624 -48
WIRE 528 16 528 -48
WIRE 528 16 432 16
WIRE 432 32 432 16
WIRE -432 48 -544 48
WIRE -96 48 -368 48
WIRE 400 48 -64 48
WIRE 592 64 464 64
WIRE 752 64 592 64
WIRE 320 80 320 -48
WIRE 400 80 320 80
WIRE 432 112 432 96
WIRE 320 128 320 80
WIRE 320 128 288 128
WIRE -240 144 -320 144
WIRE -192 144 -240 144
WIRE -96 144 -96 48
WIRE -96 144 -112 144
WIRE 96 144 -96 144
WIRE 320 160 320 128
WIRE -240 208 -240 144
WIRE 96 272 96 208
WIRE 128 272 96 272
WIRE -320 288 -320 144
WIRE -320 288 -368 288
WIRE -240 304 -240 272
WIRE -240 304 -304 304
WIRE -224 304 -240 304
WIRE -64 304 -64 48
WIRE -64 304 -144 304
WIRE -48 304 -64 304
WIRE 64 304 32 304
WIRE 128 304 96 304
WIRE -768 320 -768 304
WIRE -736 320 -768 320
WIRE -672 320 -672 304
WIRE -672 320 -736 320
WIRE -320 320 -368 320
WIRE -736 336 -736 320
WIRE 64 336 64 304
WIRE 128 336 64 336
WIRE -304 352 -304 304
WIRE -304 352 -368 352
WIRE -240 352 -240 304
WIRE 96 400 96 304
WIRE 96 464 0 464
WIRE -320 496 -320 320
WIRE -240 496 -240 416
WIRE -240 496 -320 496
WIRE -176 496 -240 496
WIRE 0 496 0 464
WIRE 0 496 -96 496
WIRE 592 496 592 64
WIRE 592 496 0 496
WIRE 224 576 224 128
WIRE 224 576 -336 576
WIRE 320 576 320 240
WIRE 320 576 224 576
WIRE 336 576 320 576
WIRE -336 592 -336 576
WIRE 336 592 336 576
FLAG -336 592 0
FLAG 336 592 0
FLAG -544 128 0
FLAG -736 336 0
FLAG -768 224 +Vcc
FLAG -672 224 -Vcc
FLAG 624 -48 +Vcc
FLAG 432 112 -Vcc
FLAG 816 64 V_out
SYMBOL Res -96 128 R90
WINDOW 0 0 56 VBottom 2
WINDOW 3 32 56 VTop 2
SYMATTR InstName R1
SYMATTR Value 10k
SYMBOL Cap -256 208 R0
SYMATTR InstName C1
SYMATTR Value 22n
SYMBOL Cap -256 352 R0
SYMATTR InstName C2
SYMATTR Value 220n
SYMBOL potential_devider -400 320 R0
SYMATTR InstName X1
SYMATTR SpiceLine Rpot={R_bass} val={wiper1}
SYMBOL potential_devider 160 304 M0
SYMATTR InstName X2
SYMATTR SpiceLine Rpot={R_treble} val={wiper2}
SYMBOL Res -80 480 R90
WINDOW 0 0 56 VBottom 2
WINDOW 3 32 56 VTop 2
SYMATTR InstName R2
SYMATTR Value 12k
SYMBOL Res -128 288 R90
WINDOW 0 0 56 VBottom 2
WINDOW 3 32 56 VTop 2
SYMATTR InstName R3
SYMATTR Value 10k
SYMBOL Res 48 288 R90
WINDOW 0 0 56 VBottom 2
WINDOW 3 32 56 VTop 2
SYMATTR InstName R4
SYMATTR Value 4.7k
SYMBOL Cap 80 400 R0
SYMATTR InstName C3
SYMATTR Value 22n
SYMBOL Cap 80 144 R0
SYMATTR InstName C4
SYMATTR Value 2.2n
SYMBOL Cap -368 32 R90
WINDOW 0 0 32 VBottom 2
WINDOW 3 32 32 VTop 2
SYMATTR InstName C5
SYMATTR Value 10µ
SYMBOL Voltage -544 32 R0
WINDOW 3 24 140 Left 2
WINDOW 123 24 162 Left 2
SYMATTR Value 0
SYMATTR Value2 AC 1
SYMATTR InstName V1
SYMBOL Res 304 144 R0
SYMATTR InstName R5
SYMATTR Value 100k
SYMBOL Cap 288 112 R90
WINDOW 0 0 32 VBottom 2
WINDOW 3 32 32 VTop 2
SYMATTR InstName C6
SYMATTR Value 47µ
SYMBOL Cap 816 48 R90
WINDOW 0 0 32 VBottom 2
WINDOW 3 32 32 VTop 2
SYMATTR InstName C7
SYMATTR Value 10µ
SYMBOL Res 464 -64 R90
WINDOW 0 0 56 VBottom 2
WINDOW 3 32 56 VTop 2
SYMATTR InstName R6
SYMATTR Value 100k
SYMBOL OP07 432 0 R0
SYMATTR InstName U1
SYMBOL Voltage -768 208 R0
SYMATTR InstName V2
SYMATTR Value +15
SYMBOL Voltage -672 208 R0
SYMATTR InstName V3
SYMATTR Value -15
TEXT -752 440 Left 2 !.ac dec 100 10 30k\n.param R_bass=100k R_treble=100k\n.step param wiper1 list 5 25 50 75 95 \n.step param wiper2 list 5 25 50 75 95
